<?xml version="1.0" encoding="UTF-8"?>

<!-- generated on 2026-07-10T21:03:27.760051+09:00 by Eclipse SUMO netedit 1.27.1
<neteditConfiguration xmlns:xsi="http://www.w3.org/2001/XMLSchema-instance" xsi:noNamespaceSchemaLocation="http://sumo.dlr.de/xsd/neteditConfiguration.xsd">

    <input>
        <route-files value="/media/tae/Tae_inHDD/My_project/Ubuntu/Proj_Autonomous_driving_of_intersection_situations_using_Ubuntu_ROS2_SUMO_Rviz2/self_study_sumo/tuto_sumo_xml_cfg/04_sumolympics/tuto_sumolympics_netedit.rou.xml"/>
        <sumo-net-file value="/media/tae/Tae_inHDD/My_project/Ubuntu/Proj_Autonomous_driving_of_intersection_situations_using_Ubuntu_ROS2_SUMO_Rviz2/self_study_sumo/tuto_sumo_xml_cfg/04_sumolympics/tuto_sumolympics.net.xml"/>
    </input>

    <output>
        <output-file value="/media/tae/Tae_inHDD/My_project/Ubuntu/Proj_Autonomous_driving_of_intersection_situations_using_Ubuntu_ROS2_SUMO_Rviz2/self_study_sumo/tuto_sumo_xml_cfg/04_sumolympics/tuto_sumolympics.net.xml"/>
    </output>

    <processing>
        <geometry.min-radius.fix.railways value="false"/>
        <geometry.avoid-overlap value="false"/>
        <geometry.max-grade.fix value="false"/>
        <offset.disable-normalization value="true"/>
    </processing>

    <junctions>
        <no-turnarounds value="true"/>
    </junctions>

</neteditConfiguration>
-->

<net version="1.20" junctionCornerDetail="5" limitTurnSpeed="5.50" avoidOverlap="0" xmlns:xsi="http://www.w3.org/2001/XMLSchema-instance" xsi:noNamespaceSchemaLocation="http://sumo.dlr.de/xsd/net_file.xsd">

    <location netOffset="0.00,0.00" convBoundary="0.00,0.00,1000.00,0.00" origBoundary="-10000000000.00,-10000000000.00,10000000000.00,10000000000.00" projParameter="!"/>

    <edge id=":J2_0" function="internal">
        <lane id=":J2_0_0" index="0" allow="pedestrian" speed="13.89" length="0.10" width="2.00" shape="900.00,-12.70 900.00,-12.70"/>
        <lane id=":J2_0_1" index="1" allow="bicycle" speed="13.89" length="0.10" width="2.10" shape="900.00,-10.65 900.00,-10.65"/>
        <lane id=":J2_0_2" index="2" allow="bus" speed="13.89" length="0.10" shape="900.00,-8.00 900.00,-8.00"/>
        <lane id=":J2_0_3" index="3" allow="passenger" speed="13.89" length="0.10" shape="900.00,-4.80 900.00,-4.80"/>
        <lane id=":J2_0_4" index="4" allow="rail_urban" speed="13.89" length="0.10" shape="900.00,-1.60 900.00,-1.60"/>
    </edge>

    <edge id="E_beg" from="J0" to="J2" priority="-1">
        <lane id="E_beg_0" index="0" allow="pedestrian" speed="13.89" length="900.00" width="2.00" shape="0.00,-12.70 900.00,-12.70"/>
        <lane id="E_beg_1" index="1" allow="bicycle" speed="13.89" length="900.00" width="2.10" shape="0.00,-10.65 900.00,-10.65"/>
        <lane id="E_beg_2" index="2" allow="bus" speed="13.89" length="900.00" shape="0.00,-8.00 900.00,-8.00"/>
        <lane id="E_beg_3" index="3" allow="passenger" speed="13.89" length="900.00" shape="0.00,-4.80 900.00,-4.80"/>
        <lane id="E_beg_4" index="4" allow="rail_urban" speed="13.89" length="900.00" shape="0.00,-1.60 900.00,-1.60"/>
    </edge>
    <edge id="E_end" from="J2" to="J1" priority="-1">
        <lane id="E_end_0" index="0" allow="pedestrian" speed="13.89" length="100.00" width="2.00" shape="900.00,-12.70 1000.00,-12.70"/>
        <lane id="E_end_1" index="1" allow="bicycle" speed="13.89" length="100.00" width="2.10" shape="900.00,-10.65 1000.00,-10.65"/>
        <lane id="E_end_2" index="2" allow="bus" speed="13.89" length="100.00" shape="900.00,-8.00 1000.00,-8.00"/>
        <lane id="E_end_3" index="3" allow="passenger" speed="13.89" length="100.00" shape="900.00,-4.80 1000.00,-4.80"/>
        <lane id="E_end_4" index="4" allow="rail_urban" speed="13.89" length="100.00" shape="900.00,-1.60 1000.00,-1.60"/>
    </edge>

    <tlLogic id="J2" type="static" programID="0" offset="0">
        <phase duration="100" state="rrrrr"/>
        <phase duration="1000" state="GGGGG"/>
        <phase duration="5"  state="rrrrr"/>
    </tlLogic>

    <junction id="J0" type="dead_end" x="0.00" y="0.00" incLanes="" intLanes="" shape="0.00,0.00 0.00,-13.70"/>
    <junction id="J1" type="dead_end" x="1000.00" y="0.00" incLanes="E_end_0 E_end_1 E_end_2 E_end_3 E_end_4" intLanes="" shape="1000.00,-13.70 1000.00,0.00"/>
    <junction id="J2" type="traffic_light" x="900.00" y="0.00" incLanes="E_beg_0 E_beg_1 E_beg_2 E_beg_3 E_beg_4" intLanes=":J2_0_0 :J2_0_1 :J2_0_2 :J2_0_3 :J2_0_4" shape="900.00,0.00 900.00,-13.70 900.00,0.00">
        <request index="0" response="00000" foes="00000" cont="0"/>
        <request index="1" response="00000" foes="00000" cont="0"/>
        <request index="2" response="00000" foes="00000" cont="0"/>
        <request index="3" response="00000" foes="00000" cont="0"/>
        <request index="4" response="00000" foes="00000" cont="0"/>
    </junction>

    <connection from="E_beg" to="E_end" fromLane="0" toLane="0" via=":J2_0_0" tl="J2" linkIndex="0" dir="s" state="O"/>
    <connection from="E_beg" to="E_end" fromLane="1" toLane="1" via=":J2_0_1" tl="J2" linkIndex="1" dir="s" state="O"/>
    <connection from="E_beg" to="E_end" fromLane="2" toLane="2" via=":J2_0_2" tl="J2" linkIndex="2" dir="s" state="O"/>
    <connection from="E_beg" to="E_end" fromLane="3" toLane="3" via=":J2_0_3" tl="J2" linkIndex="3" dir="s" state="O"/>
    <connection from="E_beg" to="E_end" fromLane="4" toLane="4" via=":J2_0_4" tl="J2" linkIndex="4" dir="s" state="O"/>

    <connection from=":J2_0" to="E_end" fromLane="0" toLane="0" dir="s" state="M"/>
    <connection from=":J2_0" to="E_end" fromLane="1" toLane="1" dir="s" state="M"/>
    <connection from=":J2_0" to="E_end" fromLane="2" toLane="2" dir="s" state="M"/>
    <connection from=":J2_0" to="E_end" fromLane="3" toLane="3" dir="s" state="M"/>
    <connection from=":J2_0" to="E_end" fromLane="4" toLane="4" dir="s" state="M"/>

</net>
