<?xml version="1.0" encoding="UTF-8"?>

<!-- generated on 2026-07-10T20:37:50.510093+09:00 by Eclipse SUMO netedit 1.27.1
-->

<routes xmlns:xsi="http://www.w3.org/2001/XMLSchema-instance" xsi:noNamespaceSchemaLocation="http://sumo.dlr.de/xsd/routes_file.xsd">
    <!-- VTypes -->
    <vType id="bike" length="1.80" maxSpeed="7.50" speedFactor="normc(1.00,0.50,0.20,2.00)" vClass="bicycle" accel="0.8" decel="1.5"/>
    <vType id="bus" length="15.00" maxSpeed="30.00" speedFactor="normc(1.00,0.10)" vClass="bus" accel="1.2" decel="2.5" sigma="0.1"/>
    <vType id="pedestrian" length="0.30" maxSpeed="2.00" speedFactor="normc(1.00,0.20,0.20,2.00)" vClass="pedestrian" width="0.50" accel="0.2" decel="1.5" sigma="0.2"/>
    <vType id="pkw" maxSpeed="50.00" speedFactor="normc(1.00,0.20,0.20,2.00)" sigma="0.2"/>
    <vType id="tram" length="40.00" maxSpeed="13.00" speedFactor="normc(1.00,0.10)" vClass="rail_urban" accel="0.8" decel="0.5" sigma="0.1"/>
    <!-- Vehicles, persons and containers (sorted by depart) -->
    <flow id="bike" type="bike" begin="0.00" end="0.00" number="100" departPos="last" color="0,128,128" from="E_beg" to="E_end"/>
    <flow id="bus" type="bus" begin="0.00" end="0.00" number="5" departPos="last" color="green" from="E_beg" to="E_end"/>
    <flow id="pedestrian" type="pedestrian" begin="0.00" end="0.00" number="100" departPos="-30.00" arrivalPos="-0.10" from="E_beg" to="E_end"/>
    <flow id="pkw" type="pkw" begin="0.00" end="0.00" number="66" departPos="last" from="E_beg" to="E_end"/>
    <flow id="tram" type="tram" begin="0.00" end="0.00" number="2" departPos="last" color="magenta" from="E_beg" to="E_end"/>
</routes>
