<?xml version="1.0" encoding="UTF-8"?>

<!-- generated on 2026-07-09T10:12:32.800647+09:00 by Eclipse SUMO netedit 1.27.1
-->

<routes xmlns:xsi="http://www.w3.org/2001/XMLSchema-instance" xsi:noNamespaceSchemaLocation="http://sumo.dlr.de/xsd/routes_file.xsd">
    <!-- Routes -->
    <route id="route_0" edges="E0 E1 E2 E3 E4"/>
    <!-- Vehicles, persons and containers (sorted by depart) -->
    <flow id="flow_0" begin="0.00" number="9" perHour="1800.00" route="route_0"/>
</routes>
