<configuration>
    <input>
        <net-file value="tuto_circles.net.xml"/>
        <route-files value="tuto_circles_netedit.rou.xml"/>
        <additional-files value="tuto_circles_netedit.add.xml"/>
    </input>
</configuration>