<?xml version="1.0" encoding="UTF-8"?>

<!-- generated on 2026-07-09T00:45:36.268411+09:00 by Eclipse SUMO netedit 1.27.1
<neteditConfiguration xmlns:xsi="http://www.w3.org/2001/XMLSchema-instance" xsi:noNamespaceSchemaLocation="http://sumo.dlr.de/xsd/neteditConfiguration.xsd">

    <input>
        <sumo-net-file value="/media/tae/Tae_inHDD/My_project/P__Autonomous_driving_of_intersection_situations_using_Ubuntu_ROS2_SUMO_Rviz2/self_study_sumo/tuto_sumo_xml_cfg/tuto_circles.net.xml"/>
    </input>

    <output>
        <output-file value="/media/tae/Tae_inHDD/My_project/P__Autonomous_driving_of_intersection_situations_using_Ubuntu_ROS2_SUMO_Rviz2/self_study_sumo/tuto_sumo_xml_cfg/tuto_circles.net.xml"/>
    </output>

    <processing>
        <geometry.min-radius.fix.railways value="false"/>
        <geometry.avoid-overlap value="false"/>
        <geometry.max-grade.fix value="false"/>
        <offset.disable-normalization value="true"/>
    </processing>

    <junctions>
        <no-turnarounds value="true"/>
    </junctions>

</neteditConfiguration>
-->

<net version="1.20" junctionCornerDetail="5" limitTurnSpeed="5.50" avoidOverlap="0" xmlns:xsi="http://www.w3.org/2001/XMLSchema-instance" xsi:noNamespaceSchemaLocation="http://sumo.dlr.de/xsd/net_file.xsd">

    <location netOffset="0.00,0.00" convBoundary="-43.96,-46.09,54.56,38.39" origBoundary="-10000000000.00,-10000000000.00,10000000000.00,10000000000.00" projParameter="!"/>

    <edge id=":J1_0" function="internal">
        <lane id=":J1_0_0" index="0" speed="4.42" length="1.03" shape="-3.96,36.49 -3.68,36.62 -3.48,36.67 -3.27,36.67 -2.97,36.62"/>
    </edge>
    <edge id=":J2_0" function="internal">
        <lane id=":J2_0_0" index="0" speed="4.04" length="1.61" shape="37.28,28.92 37.68,28.80 38.01,28.59 38.27,28.30 38.47,27.94"/>
    </edge>
    <edge id=":J3_0" function="internal">
        <lane id=":J3_0_0" index="0" speed="4.13" length="1.38" shape="52.53,-7.51 52.63,-7.85 52.65,-8.18 52.59,-8.51 52.46,-8.84"/>
    </edge>
    <edge id=":J4_0" function="internal">
        <lane id=":J4_0_0" index="0" speed="4.31" length="1.16" shape="39.97,-32.70 39.81,-33.00 39.66,-33.19 39.46,-33.32 39.15,-33.45"/>
    </edge>
    <edge id=":J5_0" function="internal">
        <lane id=":J5_0_0" index="0" speed="4.36" length="1.09" shape="12.01,-44.19 11.71,-44.30 11.49,-44.34 11.27,-44.32 10.96,-44.23"/>
    </edge>
    <edge id=":J6_0" function="internal">
        <lane id=":J6_0_0" index="0" speed="4.23" length="1.27" shape="-24.55,-33.36 -24.90,-33.24 -25.13,-33.11 -25.30,-32.92 -25.49,-32.60"/>
    </edge>
    <edge id=":J7_0" function="internal">
        <lane id=":J7_0_0" index="0" speed="4.10" length="1.45" shape="-41.81,-2.49 -41.95,-2.15 -42.01,-1.80 -41.98,-1.44 -41.87,-1.09"/>
    </edge>
    <edge id=":J8_0" function="internal">
        <lane id=":J8_0_0" index="0" speed="4.30" length="1.16" shape="-31.38,22.94 -31.24,23.25 -31.10,23.44 -30.91,23.59 -30.60,23.74"/>
    </edge>

    <edge id="E0" from="J1" to="J2" priority="-1">
        <lane id="E0_0" index="0" speed="13.89" length="40.98" shape="-2.97,36.62 37.28,28.92"/>
    </edge>
    <edge id="E1" from="J2" to="J3" priority="-1">
        <lane id="E1_0" index="0" speed="13.89" length="38.13" shape="38.47,27.94 52.53,-7.51"/>
    </edge>
    <edge id="E2" from="J3" to="J4" priority="-1">
        <lane id="E2_0" index="0" speed="13.89" length="26.94" shape="52.46,-8.84 39.97,-32.70"/>
    </edge>
    <edge id="E3" from="J4" to="J5" priority="-1">
        <lane id="E3_0" index="0" speed="13.89" length="29.18" shape="39.15,-33.45 12.01,-44.19"/>
    </edge>
    <edge id="E4" from="J5" to="J6" priority="-1">
        <lane id="E4_0" index="0" speed="13.89" length="37.13" shape="10.96,-44.23 -24.55,-33.36"/>
    </edge>
    <edge id="E5" from="J6" to="J7" priority="-1">
        <lane id="E5_0" index="0" speed="13.89" length="34.24" shape="-25.49,-32.60 -41.81,-2.49"/>
    </edge>
    <edge id="E6" from="J7" to="J8" priority="-1">
        <lane id="E6_0" index="0" speed="13.89" length="26.22" shape="-41.87,-1.09 -31.38,22.94"/>
    </edge>
    <edge id="E7" from="J8" to="J1" priority="-1">
        <lane id="E7_0" index="0" speed="13.89" length="29.54" shape="-30.60,23.74 -3.96,36.49"/>
    </edge>

    <junction id="J1" type="priority" x="-3.70" y="38.39" incLanes="E7_0" intLanes=":J1_0_0" shape="-2.67,38.19 -3.27,35.05 -4.65,37.94 -3.95,38.24 -3.69,38.30 -3.42,38.31 -3.09,38.27">
        <request index="0" response="0" foes="0" cont="0"/>
    </junction>
    <junction id="J2" type="priority" x="39.31" y="30.16" incLanes="E0_0" intLanes=":J2_0_0" shape="39.96,28.53 36.98,27.35 37.58,30.49 38.62,30.13 39.04,29.83 39.41,29.47 39.71,29.04">
        <request index="0" response="0" foes="0" cont="0"/>
    </junction>
    <junction id="J3" type="priority" x="54.56" y="-8.28" incLanes="E1_0" intLanes=":J3_0_0" shape="53.88,-9.58 51.04,-8.10 54.02,-6.92 54.24,-7.82 54.25,-8.26 54.20,-8.71 54.07,-9.14">
        <request index="0" response="0" foes="0" cont="0"/>
    </junction>
    <junction id="J4" type="priority" x="40.84" y="-34.50" incLanes="E2_0" intLanes=":J4_0_0" shape="38.56,-31.96 41.39,-33.45 40.96,-34.18 40.76,-34.41 40.51,-34.59 40.18,-34.75 39.73,-34.94">
        <request index="0" response="0" foes="0" cont="0"/>
    </junction>
    <junction id="J5" type="priority" x="11.56" y="-46.09" incLanes="E3_0" intLanes=":J5_0_0" shape="11.42,-42.70 12.60,-45.68 11.84,-45.94 11.56,-45.98 11.27,-45.96 10.93,-45.89 10.49,-45.76">
        <request index="0" response="0" foes="0" cont="0"/>
    </junction>
    <junction id="J6" type="priority" x="-26.27" y="-34.51" incLanes="E4_0" intLanes=":J6_0_0" shape="-24.08,-31.83 -25.02,-34.89 -25.89,-34.57 -26.17,-34.39 -26.41,-34.15 -26.64,-33.82 -26.89,-33.36">
        <request index="0" response="0" foes="0" cont="0"/>
    </junction>
    <junction id="J7" type="priority" x="-43.96" y="-1.88" incLanes="E5_0" intLanes=":J7_0_0" shape="-43.33,-0.45 -40.40,-1.73 -43.22,-3.25 -43.56,-2.33 -43.62,-1.87 -43.60,-1.40 -43.51,-0.92">
        <request index="0" response="0" foes="0" cont="0"/>
    </junction>
    <junction id="J8" type="priority" x="-32.37" y="24.67" incLanes="E6_0" intLanes=":J8_0_0" shape="-31.30,25.18 -29.91,22.30 -32.85,23.58 -32.47,24.34 -32.28,24.58 -32.05,24.78 -31.73,24.97">
        <request index="0" response="0" foes="0" cont="0"/>
    </junction>

    <connection from="E0" to="E1" fromLane="0" toLane="0" via=":J2_0_0" dir="r" state="M"/>
    <connection from="E1" to="E2" fromLane="0" toLane="0" via=":J3_0_0" dir="r" state="M"/>
    <connection from="E2" to="E3" fromLane="0" toLane="0" via=":J4_0_0" dir="s" state="M"/>
    <connection from="E3" to="E4" fromLane="0" toLane="0" via=":J5_0_0" dir="s" state="M"/>
    <connection from="E4" to="E5" fromLane="0" toLane="0" via=":J6_0_0" dir="r" state="M"/>
    <connection from="E5" to="E6" fromLane="0" toLane="0" via=":J7_0_0" dir="r" state="M"/>
    <connection from="E6" to="E7" fromLane="0" toLane="0" via=":J8_0_0" dir="s" state="M"/>
    <connection from="E7" to="E0" fromLane="0" toLane="0" via=":J1_0_0" dir="s" state="M"/>

    <connection from=":J1_0" to="E0" fromLane="0" toLane="0" dir="s" state="M"/>
    <connection from=":J2_0" to="E1" fromLane="0" toLane="0" dir="r" state="M"/>
    <connection from=":J3_0" to="E2" fromLane="0" toLane="0" dir="r" state="M"/>
    <connection from=":J4_0" to="E3" fromLane="0" toLane="0" dir="s" state="M"/>
    <connection from=":J5_0" to="E4" fromLane="0" toLane="0" dir="s" state="M"/>
    <connection from=":J6_0" to="E5" fromLane="0" toLane="0" dir="r" state="M"/>
    <connection from=":J7_0" to="E6" fromLane="0" toLane="0" dir="r" state="M"/>
    <connection from=":J8_0" to="E7" fromLane="0" toLane="0" dir="s" state="M"/>

</net>
